56
	Energy:      13.7106226
C          2.21694        0.31455       -0.01220
C          1.03300       -0.65931        0.00878
C         -0.30422        0.09095       -0.01275
H          1.08832       -1.28265        0.92864
H          1.09242       -1.32671       -0.87936
C         -1.48029       -0.89249        0.00902
H         -0.36200        0.71318       -0.93309
H         -0.36627        0.75813        0.87525
C         -2.82408       -0.15432       -0.01371
H         -1.41993       -1.51437        0.92955
H         -1.41502       -1.56036       -0.87837
C         -3.99092       -1.14885        0.00882
H         -2.88724        0.46629       -0.93479
H         -2.89246        0.51326        0.87352
C         -5.34152       -0.42351       -0.01530
H         -3.92510       -1.76905        0.93011
H         -3.91909       -1.81714       -0.87775
C         -6.49937       -1.42865        0.00791
H         -5.41000        0.19543       -0.93712
H         -5.41638        0.24447        0.87111
C         -7.85585       -0.71460       -0.01754
H         -6.42859       -2.04718        0.92995
H         -6.42144       -2.09727       -0.87788
C         -9.00651       -1.72807        0.00627
H         -7.92872       -0.09716       -0.94004
H         -7.93619       -0.04623        0.86810
C        -10.36713       -1.02200       -0.02024
H         -8.93202       -2.34521        0.92894
H         -8.92396       -2.39696       -0.87888
C        -11.51335       -2.04039        0.00407
H        -10.44292       -0.40565       -0.94326
H        -10.45117       -0.35325        0.86480
C        -12.87541       -1.33778       -0.02305
H        -11.43709       -2.65663        0.92722
H        -11.42852       -2.70954       -0.88069
C        -14.01726       -2.34988        0.00135
H        -12.96059       -0.72307       -0.94566
H        -12.96919       -0.66983        0.86090
H        -13.96024       -3.01790       -0.88446
H        -14.98990       -1.81466       -0.01913
H        -13.96892       -2.96442        0.92555
C          3.54902       -0.44501        0.00851
H          2.15996        0.98136        0.87642
H          2.16365        0.93811       -0.93191
C          4.73842        0.52230       -0.01178
H          3.60422       -1.11198       -0.88021
H          3.60055       -1.06942        0.92784
C          6.06957       -0.24435        0.00857
H          4.68434        1.18778        0.87819
H          4.68785        1.14567       -0.93195
C          7.27390        0.66027       -0.00990
H          6.12151       -0.91097       -0.87933
H          6.11795       -0.86930        0.92647
O          7.15655        1.87590       -0.03811
O          8.50530        0.11587        0.00508
Na        10.13641        1.29745       -0.01878
